@<TRIPOS>MOLECULE
3-5-dinitrosalicylic_acid.xyz
 20 20 0 0 0
SMALL
GASTEIGER

@<TRIPOS>ATOM
      1 C          -0.7100    1.2300    0.0300 C.ar    1  UNL1        0.0024
      2 C           0.6800    1.2100    0.0100 C.ar    1  UNL1        0.1294
      3 C           1.3900    0.0000    0.0000 C.ar    1  UNL1       -0.0138
      4 C           0.6900   -1.2200    0.0400 C.ar    1  UNL1        0.1045
      5 C          -0.7200   -1.2200    0.0400 C.ar    1  UNL1        0.1611
      6 C          -1.4000    0.0100    0.0300 C.ar    1  UNL1        0.1703
      7 N          -2.8500    0.0500    0.0200 N.pl3   1  UNL1        0.0601
      8 O          -3.3900    0.6400    0.9600 O.2     1  UNL1       -0.1260
      9 O          -3.4200   -0.4300   -0.9700 O.2     1  UNL1       -0.1260
     10 O          -1.4400   -2.3800    0.0700 O.3     1  UNL1       -0.5037
     11 C           1.4100   -2.5200    0.0400 C.2     1  UNL1        0.3405
     12 O           0.8600   -3.5300   -0.3700 O.2     1  UNL1       -0.2450
     13 O           2.6500   -2.5100    0.5600 O.3     1  UNL1       -0.4770
     14 N           1.4300    2.4800    0.0000 N.pl3   1  UNL1        0.0565
     15 O           0.7800    3.5300   -0.0400 O.2     1  UNL1       -0.1261
     16 O           2.6700    2.4100    0.0400 O.2     1  UNL1       -0.1261
     17 H          -1.2700    2.1700    0.0300 H       1  UNL1        0.0664
     18 H           2.4800    0.0100   -0.0700 H       1  UNL1        0.0650
     19 H          -0.8700   -3.1500   -0.1400 H       1  UNL1        0.2923
     20 H           2.9400   -1.7100    1.0400 H       1  UNL1        0.2954
@<TRIPOS>BOND
     1     9     7    2
     2    12    11    2
     3    19    10    1
     4    18     3    1
     5    15    14    2
     6     3     2   ar
     7     3     4   ar
     8    14     2    1
     9    14    16    2
    10     2     1   ar
    11     7     6    1
    12     7     8    2
    13     6     1   ar
    14     6     5   ar
    15    17     1    1
    16    11     4    1
    17    11    13    1
    18     5     4   ar
    19     5    10    1
    20    13    20    1
