@<TRIPOS>MOLECULE
bismuthiol.xyz
 19 20 0 0 0
SMALL
GASTEIGER

@<TRIPOS>ATOM
      1 C          -1.4100   -0.2000    0.0500 C.ar    1  UNL1       -0.0616
      2 C          -0.8800    1.0800    0.0300 C.ar    1  UNL1       -0.0598
      3 C           0.5100    1.2700   -0.0300 C.ar    1  UNL1       -0.0363
      4 C           1.3900    0.1800   -0.0700 C.ar    1  UNL1        0.0652
      5 C           0.8200   -1.1100   -0.0500 C.ar    1  UNL1       -0.0363
      6 C          -0.5600   -1.3000    0.0100 C.ar    1  UNL1       -0.0598
      7 N           2.8000    0.3300   -0.1600 N.ar    1  UNL1       -0.2400
      8 C           3.6200    1.3800    0.3000 C.ar    1  UNL1        0.1476
      9 S           3.2500    2.7100    1.2400 S.2     1  UNL1       -0.0230
     10 S           5.2900    1.0700   -0.1800 S.2     1  UNL1       -0.0356
     11 C           4.8700   -0.4300   -0.9500 C.ar    1  UNL1        0.1403
     12 S           5.8600   -1.3900   -1.8500 S.2     1  UNL1       -0.0236
     13 N           3.5500   -0.7000   -0.7400 N.ar    1  UNL1       -0.2788
     14 H          -2.4900   -0.3500    0.1000 H       1  UNL1        0.0618
     15 H          -1.5400    1.9400    0.0500 H       1  UNL1        0.0618
     16 H           0.8600    2.2900   -0.1100 H       1  UNL1        0.0639
     17 H           1.4500   -2.0000   -0.0400 H       1  UNL1        0.0639
     18 H          -0.9700   -2.3100    0.0300 H       1  UNL1        0.0618
     19 H           3.0900   -1.3800   -1.3500 H       1  UNL1        0.1885
@<TRIPOS>BOND
     1    12    11    2
     2    19    13    1
     3    11    13   ar
     4    11    10   ar
     5    13     7   ar
     6    10     8   ar
     7     7     4    1
     8     7     8   ar
     9    16     3    1
    10     4     5   ar
    11     4     3   ar
    12     5    17    1
    13     5     6   ar
    14     3     2   ar
    15     6    18    1
    16     6     1   ar
    17     2     1   ar
    18     2    15    1
    19     1    14    1
    20     8     9    2
