@<TRIPOS>MOLECULE
kojic_acid.xyz
 16 16 0 0 0
SMALL
GASTEIGER

@<TRIPOS>ATOM
      1 C          -0.7800    1.1900   -0.0100 C.ar    1  UNL1        0.0292
      2 C           0.5600    1.2300   -0.0600 C.ar    1  UNL1        0.1339
      3 O           1.3400    0.0900   -0.0700 O.2     1  UNL1       -0.4616
      4 C           0.7200   -1.1400   -0.0500 C.ar    1  UNL1        0.1372
      5 C          -0.6000   -1.3300   -0.0100 C.ar    1  UNL1        0.1992
      6 C          -1.4700   -0.1200    0.0300 C.ar    1  UNL1        0.2263
      7 O          -2.7000   -0.1700    0.0800 O.2     1  UNL1       -0.2838
      8 O          -1.1900   -2.5800    0.0100 O.3     1  UNL1       -0.5012
      9 C           1.3300    2.5200   -0.1000 C.3     1  UNL1        0.1020
     10 O           2.1200    2.5700   -1.2700 O.3     1  UNL1       -0.3873
     11 H          -1.4100    2.0700   -0.0100 H       1  UNL1        0.0691
     12 H           1.4600   -1.9300   -0.0700 H       1  UNL1        0.1069
     13 H          -0.4900   -3.2600   -0.0400 H       1  UNL1        0.2924
     14 H           1.9800    2.5900    0.7700 H       1  UNL1        0.0638
     15 H           0.6700    3.3900   -0.1000 H       1  UNL1        0.0638
     16 H           2.6600    1.7600   -1.2800 H       1  UNL1        0.2100
@<TRIPOS>BOND
     1    16    10    1
     2    10     9    1
     3     9    15    1
     4     9     2    1
     5     9    14    1
     6     3     2   ar
     7     3     4   ar
     8    12     4    1
     9     2     1   ar
    10     4     5   ar
    11    13     8    1
    12     1    11    1
    13     1     6   ar
    14     5     8    1
    15     5     6   ar
    16     6     7    2
