@<TRIPOS>MOLECULE
maltol.xyz
 15 15 0 0 0
SMALL
GASTEIGER

@<TRIPOS>ATOM
      1 C           1.0100   -0.1500    0.1700 C.3     1  UNL1       -0.0026
      2 C           2.4900    0.0500    0.0500 C.ar    1  UNL1        0.1467
      3 C           3.1200    1.2400    0.0400 C.ar    1  UNL1        0.2022
      4 C           4.6100    1.2500   -0.1500 C.ar    1  UNL1        0.2263
      5 O           5.2700    2.2900   -0.2000 O.2     1  UNL1       -0.2838
      6 C           5.2700   -0.0500   -0.2900 C.ar    1  UNL1        0.0237
      7 C           4.5200   -1.1500   -0.2400 C.ar    1  UNL1        0.0959
      8 O           3.1600   -1.1600   -0.0800 O.2     1  UNL1       -0.4642
      9 O           2.5000    2.4700    0.1900 O.3     1  UNL1       -0.5010
     10 H           0.4400    0.7800    0.1800 H       1  UNL1        0.0309
     11 H           0.7700   -0.7000    1.0900 H       1  UNL1        0.0309
     12 H           0.6400   -0.7400   -0.6800 H       1  UNL1        0.0309
     13 H           6.3500   -0.0700   -0.4200 H       1  UNL1        0.0688
     14 H           4.9100   -2.1600   -0.3200 H       1  UNL1        0.1030
     15 H           1.6000    2.3400    0.5100 H       1  UNL1        0.2924
@<TRIPOS>BOND
     1    12     1    1
     2    13     6    1
     3    14     7    1
     4     6     7   ar
     5     6     4   ar
     6     7     8   ar
     7     5     4    2
     8     4     3   ar
     9     8     2   ar
    10     3     2   ar
    11     3     9    1
    12     2     1    1
    13     1    10    1
    14     1    11    1
    15     9    15    1
